Version 4
SHEET 1 19236 4948
WIRE 11296 -2720 11104 -2720
WIRE 11632 -2720 11376 -2720
WIRE 11936 -2720 11632 -2720
WIRE 12112 -2720 12016 -2720
WIRE 12224 -2720 12192 -2720
WIRE 1392 -2704 1200 -2704
WIRE 1728 -2704 1472 -2704
WIRE 2032 -2704 1728 -2704
WIRE 2208 -2704 2112 -2704
WIRE 2320 -2704 2288 -2704
WIRE 11632 -2656 11632 -2720
WIRE 12224 -2656 12224 -2720
WIRE 1728 -2640 1728 -2704
WIRE 2320 -2640 2320 -2704
WIRE 11296 -2512 11296 -2720
WIRE 11632 -2512 11632 -2592
WIRE 11632 -2512 11296 -2512
WIRE 12224 -2512 12224 -2592
WIRE 12224 -2512 11632 -2512
WIRE 1392 -2496 1392 -2704
WIRE 1728 -2496 1728 -2576
WIRE 1728 -2496 1392 -2496
WIRE 2320 -2496 2320 -2576
WIRE 2320 -2496 1728 -2496
WIRE 11296 -2272 10880 -2272
WIRE 11632 -2272 11376 -2272
WIRE 11936 -2272 11632 -2272
WIRE 12112 -2272 12016 -2272
WIRE 12224 -2272 12192 -2272
WIRE 1392 -2256 976 -2256
WIRE 1728 -2256 1472 -2256
WIRE 2032 -2256 1728 -2256
WIRE 2208 -2256 2112 -2256
WIRE 2320 -2256 2288 -2256
WIRE 11632 -2208 11632 -2272
WIRE 12224 -2208 12224 -2272
WIRE 1728 -2192 1728 -2256
WIRE 2320 -2192 2320 -2256
WIRE 11104 -2064 11104 -2720
WIRE 11632 -2064 11632 -2144
WIRE 11632 -2064 11104 -2064
WIRE 12224 -2064 12224 -2144
WIRE 12224 -2064 11632 -2064
WIRE 1200 -2048 1200 -2704
WIRE 1728 -2048 1728 -2128
WIRE 1728 -2048 1200 -2048
WIRE 2320 -2048 2320 -2128
WIRE 2320 -2048 1728 -2048
WIRE 13024 -1696 12112 -1696
WIRE 1760 -1568 1248 -1568
WIRE 12976 -1488 12896 -1488
WIRE 12896 -1472 12896 -1488
WIRE 13024 -1456 13024 -1696
WIRE 1712 -1440 1632 -1440
WIRE 12976 -1440 12976 -1488
WIRE 1632 -1424 1632 -1440
WIRE 1760 -1408 1760 -1568
WIRE 1712 -1392 1712 -1440
WIRE 12976 -1392 12592 -1392
WIRE 12592 -1360 12592 -1392
WIRE 1712 -1344 1328 -1344
WIRE 1328 -1312 1328 -1344
WIRE 12880 -1312 12800 -1312
WIRE 13024 -1312 13024 -1376
WIRE 13152 -1312 13024 -1312
WIRE 13344 -1312 13232 -1312
WIRE 13504 -1312 13344 -1312
WIRE 13632 -1312 13584 -1312
WIRE 13776 -1312 13712 -1312
WIRE 14032 -1312 13776 -1312
WIRE 14384 -1312 14112 -1312
WIRE 14528 -1312 14464 -1312
WIRE 14704 -1312 14528 -1312
WIRE 14848 -1312 14784 -1312
WIRE 15024 -1312 14848 -1312
WIRE 15168 -1312 15104 -1312
WIRE 15344 -1312 15168 -1312
WIRE 15488 -1312 15424 -1312
WIRE 15664 -1312 15488 -1312
WIRE 15808 -1312 15744 -1312
WIRE 15984 -1312 15808 -1312
WIRE 16128 -1312 16064 -1312
WIRE 16304 -1312 16128 -1312
WIRE 16448 -1312 16384 -1312
WIRE 16624 -1312 16448 -1312
WIRE 16768 -1312 16704 -1312
WIRE 16944 -1312 16768 -1312
WIRE 17088 -1312 17024 -1312
WIRE 17264 -1312 17088 -1312
WIRE 17408 -1312 17344 -1312
WIRE 17584 -1312 17408 -1312
WIRE 17728 -1312 17664 -1312
WIRE 17904 -1312 17728 -1312
WIRE 18048 -1312 17984 -1312
WIRE 18432 -1312 18048 -1312
WIRE 18608 -1312 18432 -1312
WIRE 18656 -1312 18608 -1312
WIRE 18784 -1312 18736 -1312
WIRE 19072 -1312 18864 -1312
WIRE 12800 -1280 12800 -1312
WIRE 12976 -1280 12912 -1280
WIRE 18432 -1280 18432 -1312
WIRE 1616 -1264 1536 -1264
WIRE 1760 -1264 1760 -1328
WIRE 1888 -1264 1760 -1264
WIRE 2080 -1264 1968 -1264
WIRE 2240 -1264 2080 -1264
WIRE 2368 -1264 2320 -1264
WIRE 2512 -1264 2448 -1264
WIRE 2768 -1264 2512 -1264
WIRE 3120 -1264 2848 -1264
WIRE 3264 -1264 3200 -1264
WIRE 3360 -1264 3264 -1264
WIRE 3440 -1264 3360 -1264
WIRE 3584 -1264 3520 -1264
WIRE 3680 -1264 3584 -1264
WIRE 3760 -1264 3680 -1264
WIRE 3904 -1264 3840 -1264
WIRE 4000 -1264 3904 -1264
WIRE 4080 -1264 4000 -1264
WIRE 4224 -1264 4160 -1264
WIRE 4320 -1264 4224 -1264
WIRE 4400 -1264 4320 -1264
WIRE 4544 -1264 4480 -1264
WIRE 4640 -1264 4544 -1264
WIRE 4720 -1264 4640 -1264
WIRE 4864 -1264 4800 -1264
WIRE 4960 -1264 4864 -1264
WIRE 5040 -1264 4960 -1264
WIRE 5184 -1264 5120 -1264
WIRE 5280 -1264 5184 -1264
WIRE 5360 -1264 5280 -1264
WIRE 5504 -1264 5440 -1264
WIRE 5600 -1264 5504 -1264
WIRE 5680 -1264 5600 -1264
WIRE 5824 -1264 5760 -1264
WIRE 5920 -1264 5824 -1264
WIRE 6000 -1264 5920 -1264
WIRE 6144 -1264 6080 -1264
WIRE 6240 -1264 6144 -1264
WIRE 6320 -1264 6240 -1264
WIRE 6464 -1264 6400 -1264
WIRE 6560 -1264 6464 -1264
WIRE 6640 -1264 6560 -1264
WIRE 6784 -1264 6720 -1264
WIRE 6880 -1264 6784 -1264
WIRE 7168 -1264 6880 -1264
WIRE 7344 -1264 7168 -1264
WIRE 7392 -1264 7344 -1264
WIRE 7520 -1264 7472 -1264
WIRE 7808 -1264 7600 -1264
WIRE 13024 -1264 13024 -1312
WIRE 14528 -1264 14528 -1312
WIRE 14848 -1264 14848 -1312
WIRE 15168 -1264 15168 -1312
WIRE 15488 -1264 15488 -1312
WIRE 15808 -1264 15808 -1312
WIRE 16128 -1264 16128 -1312
WIRE 16448 -1264 16448 -1312
WIRE 16768 -1264 16768 -1312
WIRE 17088 -1264 17088 -1312
WIRE 17408 -1264 17408 -1312
WIRE 17728 -1264 17728 -1312
WIRE 18048 -1264 18048 -1312
WIRE 12912 -1248 12912 -1280
WIRE 12976 -1248 12976 -1280
WIRE 1536 -1232 1536 -1264
WIRE 1712 -1232 1648 -1232
WIRE 7168 -1232 7168 -1264
WIRE 12592 -1232 12592 -1280
WIRE 13344 -1232 13344 -1312
WIRE 13776 -1232 13776 -1312
WIRE 18608 -1232 18608 -1312
WIRE 19072 -1232 19072 -1312
WIRE 1760 -1216 1760 -1264
WIRE 3264 -1216 3264 -1264
WIRE 3584 -1216 3584 -1264
WIRE 3904 -1216 3904 -1264
WIRE 4224 -1216 4224 -1264
WIRE 4544 -1216 4544 -1264
WIRE 4864 -1216 4864 -1264
WIRE 5184 -1216 5184 -1264
WIRE 5504 -1216 5504 -1264
WIRE 5824 -1216 5824 -1264
WIRE 6144 -1216 6144 -1264
WIRE 6464 -1216 6464 -1264
WIRE 6784 -1216 6784 -1264
WIRE 1648 -1200 1648 -1232
WIRE 1712 -1200 1712 -1232
WIRE 12880 -1200 12880 -1312
WIRE 12976 -1200 12880 -1200
WIRE 1328 -1184 1328 -1232
WIRE 2080 -1184 2080 -1264
WIRE 2512 -1184 2512 -1264
WIRE 7344 -1184 7344 -1264
WIRE 7808 -1184 7808 -1264
WIRE 1616 -1152 1616 -1264
WIRE 1712 -1152 1616 -1152
WIRE 12800 -1152 12800 -1200
WIRE 14528 -1152 14528 -1200
WIRE 14528 -1152 14000 -1152
WIRE 14848 -1152 14848 -1200
WIRE 14848 -1152 14528 -1152
WIRE 15168 -1152 15168 -1200
WIRE 15168 -1152 14848 -1152
WIRE 15488 -1152 15488 -1200
WIRE 15488 -1152 15168 -1152
WIRE 15808 -1152 15808 -1200
WIRE 15808 -1152 15488 -1152
WIRE 16128 -1152 16128 -1200
WIRE 16128 -1152 15808 -1152
WIRE 16448 -1152 16448 -1200
WIRE 16448 -1152 16128 -1152
WIRE 16768 -1152 16768 -1200
WIRE 16768 -1152 16448 -1152
WIRE 17088 -1152 17088 -1200
WIRE 17088 -1152 16768 -1152
WIRE 17408 -1152 17408 -1200
WIRE 17408 -1152 17088 -1152
WIRE 17728 -1152 17728 -1200
WIRE 17728 -1152 17408 -1152
WIRE 18048 -1152 18048 -1200
WIRE 18048 -1152 17728 -1152
WIRE 18432 -1152 18432 -1200
WIRE 18432 -1152 18048 -1152
WIRE 18608 -1152 18608 -1168
WIRE 18608 -1152 18432 -1152
WIRE 1536 -1104 1536 -1152
WIRE 3264 -1104 3264 -1152
WIRE 3264 -1104 2736 -1104
WIRE 3584 -1104 3584 -1152
WIRE 3584 -1104 3264 -1104
WIRE 3904 -1104 3904 -1152
WIRE 3904 -1104 3584 -1104
WIRE 4224 -1104 4224 -1152
WIRE 4224 -1104 3904 -1104
WIRE 4544 -1104 4544 -1152
WIRE 4544 -1104 4224 -1104
WIRE 4864 -1104 4864 -1152
WIRE 4864 -1104 4544 -1104
WIRE 5184 -1104 5184 -1152
WIRE 5184 -1104 4864 -1104
WIRE 5504 -1104 5504 -1152
WIRE 5504 -1104 5184 -1104
WIRE 5824 -1104 5824 -1152
WIRE 5824 -1104 5504 -1104
WIRE 6144 -1104 6144 -1152
WIRE 6144 -1104 5824 -1104
WIRE 6464 -1104 6464 -1152
WIRE 6464 -1104 6144 -1104
WIRE 6784 -1104 6784 -1152
WIRE 6784 -1104 6464 -1104
WIRE 7168 -1104 7168 -1152
WIRE 7168 -1104 6784 -1104
WIRE 7344 -1104 7344 -1120
WIRE 7344 -1104 7168 -1104
WIRE 3360 -1072 3360 -1264
WIRE 3680 -1072 3680 -1264
WIRE 4000 -1072 4000 -1264
WIRE 4320 -1072 4320 -1264
WIRE 4640 -1072 4640 -1264
WIRE 4960 -1072 4960 -1264
WIRE 5280 -1072 5280 -1264
WIRE 5600 -1072 5600 -1264
WIRE 5920 -1072 5920 -1264
WIRE 6240 -1072 6240 -1264
WIRE 6560 -1072 6560 -1264
WIRE 6880 -1072 6880 -1264
WIRE 13024 -1024 13024 -1184
WIRE 13024 -1024 12224 -1024
WIRE 13344 -1024 13344 -1168
WIRE 13344 -1024 13024 -1024
WIRE 13776 -1024 13776 -1168
WIRE 13776 -1024 13344 -1024
WIRE 14000 -1024 14000 -1152
WIRE 14000 -1024 13776 -1024
WIRE 18608 -1024 18608 -1152
WIRE 19072 -1024 19072 -1168
WIRE 19072 -1024 18608 -1024
WIRE 1200 -976 1200 -2048
WIRE 1360 -976 1200 -976
WIRE 1760 -976 1760 -1136
WIRE 1760 -976 1360 -976
WIRE 2080 -976 2080 -1120
WIRE 2080 -976 1760 -976
WIRE 2512 -976 2512 -1120
WIRE 2512 -976 2080 -976
WIRE 2736 -976 2736 -1104
WIRE 2736 -976 2512 -976
WIRE 7344 -976 7344 -1104
WIRE 7808 -976 7808 -1120
WIRE 7808 -976 7344 -976
WIRE 976 -928 976 -2256
WIRE 1248 -928 1248 -1568
WIRE 1248 -928 976 -928
WIRE 12112 -896 12112 -1696
WIRE 13024 -896 12112 -896
WIRE 2976 -880 2864 -880
WIRE 3120 -880 2976 -880
WIRE 3264 -880 3200 -880
WIRE 3360 -880 3360 -1008
WIRE 3360 -880 3264 -880
WIRE 3440 -880 3360 -880
WIRE 3584 -880 3520 -880
WIRE 3680 -880 3680 -1008
WIRE 3680 -880 3584 -880
WIRE 3760 -880 3680 -880
WIRE 3904 -880 3840 -880
WIRE 4000 -880 4000 -1008
WIRE 4000 -880 3904 -880
WIRE 4080 -880 4000 -880
WIRE 4224 -880 4160 -880
WIRE 4320 -880 4320 -1008
WIRE 4320 -880 4224 -880
WIRE 4400 -880 4320 -880
WIRE 4544 -880 4480 -880
WIRE 4640 -880 4640 -1008
WIRE 4640 -880 4544 -880
WIRE 4720 -880 4640 -880
WIRE 4864 -880 4800 -880
WIRE 4960 -880 4960 -1008
WIRE 4960 -880 4864 -880
WIRE 5040 -880 4960 -880
WIRE 5184 -880 5120 -880
WIRE 5280 -880 5280 -1008
WIRE 5280 -880 5184 -880
WIRE 5360 -880 5280 -880
WIRE 5504 -880 5440 -880
WIRE 5600 -880 5600 -1008
WIRE 5600 -880 5504 -880
WIRE 5680 -880 5600 -880
WIRE 5824 -880 5760 -880
WIRE 5920 -880 5920 -1008
WIRE 5920 -880 5824 -880
WIRE 6000 -880 5920 -880
WIRE 6144 -880 6080 -880
WIRE 6240 -880 6240 -1008
WIRE 6240 -880 6144 -880
WIRE 6320 -880 6240 -880
WIRE 6464 -880 6400 -880
WIRE 6560 -880 6560 -1008
WIRE 6560 -880 6464 -880
WIRE 6640 -880 6560 -880
WIRE 6784 -880 6720 -880
WIRE 6880 -880 6880 -1008
WIRE 6880 -880 6784 -880
WIRE 7168 -880 6880 -880
WIRE 7168 -832 7168 -880
WIRE 2864 -816 2864 -880
WIRE 2976 -816 2976 -880
WIRE 3264 -800 3264 -880
WIRE 3584 -800 3584 -880
WIRE 3904 -800 3904 -880
WIRE 4224 -800 4224 -880
WIRE 4544 -800 4544 -880
WIRE 4864 -800 4864 -880
WIRE 5184 -800 5184 -880
WIRE 5504 -800 5504 -880
WIRE 5824 -800 5824 -880
WIRE 6144 -800 6144 -880
WIRE 6464 -800 6464 -880
WIRE 6784 -800 6784 -880
WIRE 11104 -768 11104 -2064
WIRE 12224 -768 12224 -1024
WIRE 12224 -768 11104 -768
WIRE 2864 -704 2864 -736
WIRE 2976 -704 2976 -736
WIRE 2976 -704 2864 -704
WIRE 3264 -688 3264 -736
WIRE 3584 -688 3584 -736
WIRE 3904 -688 3904 -736
WIRE 4224 -688 4224 -736
WIRE 4544 -688 4544 -736
WIRE 4864 -688 4864 -736
WIRE 5184 -688 5184 -736
WIRE 5504 -688 5504 -736
WIRE 5824 -688 5824 -736
WIRE 6144 -688 6144 -736
WIRE 6464 -688 6464 -736
WIRE 6784 -688 6784 -736
WIRE 12976 -688 12896 -688
WIRE 2864 -672 2864 -704
WIRE 12896 -672 12896 -688
WIRE 13024 -656 13024 -896
WIRE 10880 -640 10880 -2272
WIRE 12112 -640 12112 -896
WIRE 12112 -640 10880 -640
WIRE 12976 -640 12976 -688
WIRE 2976 -608 2976 -704
WIRE 7168 -608 7168 -752
WIRE 7168 -608 2976 -608
WIRE 1248 -592 1248 -928
WIRE 2448 -592 1248 -592
WIRE 12976 -592 12592 -592
WIRE 12592 -560 12592 -592
WIRE 12880 -512 12800 -512
WIRE 13024 -512 13024 -576
WIRE 13152 -512 13024 -512
WIRE 13344 -512 13232 -512
WIRE 13504 -512 13344 -512
WIRE 13632 -512 13584 -512
WIRE 13776 -512 13712 -512
WIRE 14032 -512 13776 -512
WIRE 14384 -512 14112 -512
WIRE 14528 -512 14464 -512
WIRE 14704 -512 14528 -512
WIRE 14848 -512 14784 -512
WIRE 15024 -512 14848 -512
WIRE 15168 -512 15104 -512
WIRE 15344 -512 15168 -512
WIRE 15488 -512 15424 -512
WIRE 15664 -512 15488 -512
WIRE 15808 -512 15744 -512
WIRE 15984 -512 15808 -512
WIRE 16128 -512 16064 -512
WIRE 16304 -512 16128 -512
WIRE 16448 -512 16384 -512
WIRE 16624 -512 16448 -512
WIRE 16768 -512 16704 -512
WIRE 16944 -512 16768 -512
WIRE 17088 -512 17024 -512
WIRE 17264 -512 17088 -512
WIRE 17408 -512 17344 -512
WIRE 17584 -512 17408 -512
WIRE 17728 -512 17664 -512
WIRE 17904 -512 17728 -512
WIRE 18048 -512 17984 -512
WIRE 18608 -512 18048 -512
WIRE 18656 -512 18608 -512
WIRE 18784 -512 18736 -512
WIRE 19072 -512 18864 -512
WIRE 12800 -480 12800 -512
WIRE 12976 -480 12912 -480
WIRE 2400 -464 2320 -464
WIRE 13024 -464 13024 -512
WIRE 14528 -464 14528 -512
WIRE 14848 -464 14848 -512
WIRE 15168 -464 15168 -512
WIRE 15488 -464 15488 -512
WIRE 15808 -464 15808 -512
WIRE 16128 -464 16128 -512
WIRE 16448 -464 16448 -512
WIRE 16768 -464 16768 -512
WIRE 17088 -464 17088 -512
WIRE 17408 -464 17408 -512
WIRE 17728 -464 17728 -512
WIRE 18048 -464 18048 -512
WIRE 2320 -448 2320 -464
WIRE 12912 -448 12912 -480
WIRE 12976 -448 12976 -480
WIRE 2448 -432 2448 -592
WIRE 12592 -432 12592 -480
WIRE 13344 -432 13344 -512
WIRE 13776 -432 13776 -512
WIRE 18608 -432 18608 -512
WIRE 19072 -432 19072 -512
WIRE 2400 -416 2400 -464
WIRE 12880 -400 12880 -512
WIRE 12976 -400 12880 -400
WIRE 2400 -368 2016 -368
WIRE 12800 -352 12800 -400
WIRE 14528 -352 14528 -400
WIRE 14528 -352 14000 -352
WIRE 14848 -352 14848 -400
WIRE 14848 -352 14528 -352
WIRE 15168 -352 15168 -400
WIRE 15168 -352 14848 -352
WIRE 15488 -352 15488 -400
WIRE 15488 -352 15168 -352
WIRE 15808 -352 15808 -400
WIRE 15808 -352 15488 -352
WIRE 16128 -352 16128 -400
WIRE 16128 -352 15808 -352
WIRE 16448 -352 16448 -400
WIRE 16448 -352 16128 -352
WIRE 16768 -352 16768 -400
WIRE 16768 -352 16448 -352
WIRE 17088 -352 17088 -400
WIRE 17088 -352 16768 -352
WIRE 17408 -352 17408 -400
WIRE 17408 -352 17088 -352
WIRE 17728 -352 17728 -400
WIRE 17728 -352 17408 -352
WIRE 18048 -352 18048 -400
WIRE 18048 -352 17728 -352
WIRE 18608 -352 18608 -368
WIRE 18608 -352 18048 -352
WIRE 2016 -336 2016 -368
WIRE 11376 -304 11040 -304
WIRE 11456 -304 11376 -304
WIRE 11632 -304 11536 -304
WIRE 11904 -304 11712 -304
WIRE 12112 -304 12112 -640
WIRE 12112 -304 11904 -304
WIRE 2304 -288 2224 -288
WIRE 2448 -288 2448 -352
WIRE 2576 -288 2448 -288
WIRE 2768 -288 2656 -288
WIRE 2928 -288 2768 -288
WIRE 3056 -288 3008 -288
WIRE 3200 -288 3136 -288
WIRE 3456 -288 3200 -288
WIRE 3808 -288 3536 -288
WIRE 3952 -288 3888 -288
WIRE 4048 -288 3952 -288
WIRE 4128 -288 4048 -288
WIRE 4272 -288 4208 -288
WIRE 4368 -288 4272 -288
WIRE 4448 -288 4368 -288
WIRE 4592 -288 4528 -288
WIRE 4688 -288 4592 -288
WIRE 4768 -288 4688 -288
WIRE 4912 -288 4848 -288
WIRE 5008 -288 4912 -288
WIRE 5088 -288 5008 -288
WIRE 5232 -288 5168 -288
WIRE 5328 -288 5232 -288
WIRE 5408 -288 5328 -288
WIRE 5552 -288 5488 -288
WIRE 5648 -288 5552 -288
WIRE 5728 -288 5648 -288
WIRE 5872 -288 5808 -288
WIRE 5968 -288 5872 -288
WIRE 6048 -288 5968 -288
WIRE 6192 -288 6128 -288
WIRE 6288 -288 6192 -288
WIRE 6368 -288 6288 -288
WIRE 6512 -288 6448 -288
WIRE 6608 -288 6512 -288
WIRE 6688 -288 6608 -288
WIRE 6832 -288 6768 -288
WIRE 6928 -288 6832 -288
WIRE 7008 -288 6928 -288
WIRE 7152 -288 7088 -288
WIRE 7248 -288 7152 -288
WIRE 7328 -288 7248 -288
WIRE 7472 -288 7408 -288
WIRE 7568 -288 7472 -288
WIRE 7856 -288 7568 -288
WIRE 8032 -288 7856 -288
WIRE 8080 -288 8032 -288
WIRE 8208 -288 8160 -288
WIRE 8496 -288 8288 -288
WIRE 2224 -256 2224 -288
WIRE 2400 -256 2336 -256
WIRE 7856 -256 7856 -288
WIRE 2448 -240 2448 -288
WIRE 3952 -240 3952 -288
WIRE 4272 -240 4272 -288
WIRE 4592 -240 4592 -288
WIRE 4912 -240 4912 -288
WIRE 5232 -240 5232 -288
WIRE 5552 -240 5552 -288
WIRE 5872 -240 5872 -288
WIRE 6192 -240 6192 -288
WIRE 6512 -240 6512 -288
WIRE 6832 -240 6832 -288
WIRE 7152 -240 7152 -288
WIRE 7472 -240 7472 -288
WIRE 11376 -240 11376 -304
WIRE 11904 -240 11904 -304
WIRE 2336 -224 2336 -256
WIRE 2400 -224 2400 -256
WIRE 12224 -224 12224 -768
WIRE 13024 -224 13024 -384
WIRE 13024 -224 12224 -224
WIRE 13344 -224 13344 -368
WIRE 13344 -224 13024 -224
WIRE 13776 -224 13776 -368
WIRE 13776 -224 13344 -224
WIRE 14000 -224 14000 -352
WIRE 14000 -224 13776 -224
WIRE 18608 -224 18608 -352
WIRE 19072 -224 19072 -368
WIRE 19072 -224 18608 -224
WIRE 2016 -208 2016 -256
WIRE 2768 -208 2768 -288
WIRE 3200 -208 3200 -288
WIRE 8032 -208 8032 -288
WIRE 8496 -208 8496 -288
WIRE 2304 -176 2304 -288
WIRE 2400 -176 2304 -176
WIRE 11040 -176 11040 -304
WIRE 11040 -176 10832 -176
WIRE 11376 -160 11376 -176
WIRE 11904 -144 11904 -176
WIRE 2224 -128 2224 -176
WIRE 3952 -128 3952 -176
WIRE 3952 -128 3376 -128
WIRE 4272 -128 4272 -176
WIRE 4272 -128 3952 -128
WIRE 4592 -128 4592 -176
WIRE 4592 -128 4272 -128
WIRE 4912 -128 4912 -176
WIRE 4912 -128 4592 -128
WIRE 5232 -128 5232 -176
WIRE 5232 -128 4912 -128
WIRE 5552 -128 5552 -176
WIRE 5552 -128 5232 -128
WIRE 5872 -128 5872 -176
WIRE 5872 -128 5552 -128
WIRE 6192 -128 6192 -176
WIRE 6192 -128 5872 -128
WIRE 6512 -128 6512 -176
WIRE 6512 -128 6192 -128
WIRE 6832 -128 6832 -176
WIRE 6832 -128 6512 -128
WIRE 7152 -128 7152 -176
WIRE 7152 -128 6832 -128
WIRE 7472 -128 7472 -176
WIRE 7472 -128 7152 -128
WIRE 7856 -128 7856 -176
WIRE 7856 -128 7472 -128
WIRE 8032 -128 8032 -144
WIRE 8032 -128 7856 -128
WIRE 576 -112 240 -112
WIRE 656 -112 576 -112
WIRE 832 -112 736 -112
WIRE 1104 -112 912 -112
WIRE 1248 -112 1248 -592
WIRE 1248 -112 1104 -112
WIRE 10832 -112 10832 -176
WIRE 11040 -112 11040 -176
WIRE 4048 -96 4048 -288
WIRE 4368 -96 4368 -288
WIRE 4688 -96 4688 -288
WIRE 5008 -96 5008 -288
WIRE 5328 -96 5328 -288
WIRE 5648 -96 5648 -288
WIRE 5968 -96 5968 -288
WIRE 6288 -96 6288 -288
WIRE 6608 -96 6608 -288
WIRE 6928 -96 6928 -288
WIRE 7248 -96 7248 -288
WIRE 7568 -96 7568 -288
WIRE 12112 -96 12112 -304
WIRE 13024 -96 12112 -96
WIRE 576 -48 576 -112
WIRE 1104 -48 1104 -112
WIRE 1360 0 1360 -976
WIRE 2448 0 2448 -160
WIRE 2448 0 1360 0
WIRE 2768 0 2768 -144
WIRE 2768 0 2448 0
WIRE 3200 0 3200 -144
WIRE 3200 0 2768 0
WIRE 3376 0 3376 -128
WIRE 3376 0 3200 0
WIRE 8032 0 8032 -128
WIRE 8496 0 8496 -144
WIRE 8496 0 8032 0
WIRE 240 16 240 -112
WIRE 240 16 32 16
WIRE 576 32 576 16
WIRE 10832 32 10832 -32
WIRE 11040 32 11040 -48
WIRE 11040 32 10832 32
WIRE 11376 32 11040 32
WIRE 11456 32 11376 32
WIRE 11632 32 11536 32
WIRE 11904 32 11712 32
WIRE 12224 32 12224 -224
WIRE 12224 32 11904 32
WIRE 1104 48 1104 16
WIRE 10832 48 10832 32
WIRE 32 80 32 16
WIRE 240 80 240 16
WIRE 3664 96 3552 96
WIRE 3808 96 3664 96
WIRE 3952 96 3888 96
WIRE 4048 96 4048 -32
WIRE 4048 96 3952 96
WIRE 4128 96 4048 96
WIRE 4272 96 4208 96
WIRE 4368 96 4368 -32
WIRE 4368 96 4272 96
WIRE 4448 96 4368 96
WIRE 4592 96 4528 96
WIRE 4688 96 4688 -32
WIRE 4688 96 4592 96
WIRE 4768 96 4688 96
WIRE 4912 96 4848 96
WIRE 5008 96 5008 -32
WIRE 5008 96 4912 96
WIRE 5088 96 5008 96
WIRE 5232 96 5168 96
WIRE 5328 96 5328 -32
WIRE 5328 96 5232 96
WIRE 5408 96 5328 96
WIRE 5552 96 5488 96
WIRE 5648 96 5648 -32
WIRE 5648 96 5552 96
WIRE 5728 96 5648 96
WIRE 5872 96 5808 96
WIRE 5968 96 5968 -32
WIRE 5968 96 5872 96
WIRE 6048 96 5968 96
WIRE 6192 96 6128 96
WIRE 6288 96 6288 -32
WIRE 6288 96 6192 96
WIRE 6368 96 6288 96
WIRE 6512 96 6448 96
WIRE 6608 96 6608 -32
WIRE 6608 96 6512 96
WIRE 6688 96 6608 96
WIRE 6832 96 6768 96
WIRE 6928 96 6928 -32
WIRE 6928 96 6832 96
WIRE 7008 96 6928 96
WIRE 7152 96 7088 96
WIRE 7248 96 7248 -32
WIRE 7248 96 7152 96
WIRE 7328 96 7248 96
WIRE 7472 96 7408 96
WIRE 7568 96 7568 -32
WIRE 7568 96 7472 96
WIRE 7856 96 7568 96
WIRE 11376 96 11376 32
WIRE 11904 96 11904 32
WIRE 12976 96 12896 96
WIRE 12896 112 12896 96
WIRE 13024 128 13024 -96
WIRE 7856 144 7856 96
WIRE 12976 144 12976 96
WIRE 3552 160 3552 96
WIRE 3664 160 3664 96
WIRE 3952 176 3952 96
WIRE 4272 176 4272 96
WIRE 4592 176 4592 96
WIRE 4912 176 4912 96
WIRE 5232 176 5232 96
WIRE 5552 176 5552 96
WIRE 5872 176 5872 96
WIRE 6192 176 6192 96
WIRE 6512 176 6512 96
WIRE 6832 176 6832 96
WIRE 7152 176 7152 96
WIRE 7472 176 7472 96
WIRE 11376 176 11376 160
WIRE 12976 176 12592 176
WIRE 11904 192 11904 160
WIRE 12976 192 12976 176
WIRE 32 224 32 160
WIRE 240 224 240 144
WIRE 240 224 32 224
WIRE 576 224 240 224
WIRE 656 224 576 224
WIRE 832 224 736 224
WIRE 1104 224 912 224
WIRE 1360 224 1360 0
WIRE 1360 224 1104 224
WIRE 12592 224 12592 176
WIRE 32 240 32 224
WIRE 3552 272 3552 240
WIRE 3664 272 3664 240
WIRE 3664 272 3552 272
WIRE 12880 272 12800 272
WIRE 13024 272 13024 208
WIRE 13152 272 13024 272
WIRE 13344 272 13232 272
WIRE 13504 272 13344 272
WIRE 13632 272 13584 272
WIRE 13776 272 13712 272
WIRE 14032 272 13776 272
WIRE 14384 272 14112 272
WIRE 14528 272 14464 272
WIRE 14704 272 14528 272
WIRE 14848 272 14784 272
WIRE 15024 272 14848 272
WIRE 15168 272 15104 272
WIRE 15344 272 15168 272
WIRE 15488 272 15424 272
WIRE 15664 272 15488 272
WIRE 15808 272 15744 272
WIRE 15984 272 15808 272
WIRE 16128 272 16064 272
WIRE 16304 272 16128 272
WIRE 16448 272 16384 272
WIRE 16624 272 16448 272
WIRE 16768 272 16704 272
WIRE 16944 272 16768 272
WIRE 17088 272 17024 272
WIRE 17264 272 17088 272
WIRE 17408 272 17344 272
WIRE 17584 272 17408 272
WIRE 17728 272 17664 272
WIRE 17904 272 17728 272
WIRE 18048 272 17984 272
WIRE 18608 272 18048 272
WIRE 18656 272 18608 272
WIRE 18784 272 18736 272
WIRE 19072 272 18864 272
WIRE 576 288 576 224
WIRE 1104 288 1104 224
WIRE 3952 288 3952 240
WIRE 4272 288 4272 240
WIRE 4592 288 4592 240
WIRE 4912 288 4912 240
WIRE 5232 288 5232 240
WIRE 5552 288 5552 240
WIRE 5872 288 5872 240
WIRE 6192 288 6192 240
WIRE 6512 288 6512 240
WIRE 6832 288 6832 240
WIRE 7152 288 7152 240
WIRE 7472 288 7472 240
WIRE 3552 304 3552 272
WIRE 12800 304 12800 272
WIRE 12976 304 12912 304
WIRE 13024 320 13024 272
WIRE 14528 320 14528 272
WIRE 14848 320 14848 272
WIRE 15168 320 15168 272
WIRE 15488 320 15488 272
WIRE 15808 320 15808 272
WIRE 16128 320 16128 272
WIRE 16448 320 16448 272
WIRE 16768 320 16768 272
WIRE 17088 320 17088 272
WIRE 17408 320 17408 272
WIRE 17728 320 17728 272
WIRE 18048 320 18048 272
WIRE 12912 336 12912 304
WIRE 12976 336 12976 304
WIRE 12592 352 12592 304
WIRE 13344 352 13344 272
WIRE 13776 352 13776 272
WIRE 18608 352 18608 272
WIRE 19072 352 19072 272
WIRE 576 368 576 352
WIRE 3664 368 3664 272
WIRE 7856 368 7856 224
WIRE 7856 368 3664 368
WIRE 1104 384 1104 352
WIRE 1248 384 1248 -112
WIRE 2464 384 1248 384
WIRE 12880 384 12880 272
WIRE 12976 384 12880 384
WIRE 12800 432 12800 384
WIRE 14528 432 14528 384
WIRE 14528 432 14000 432
WIRE 14848 432 14848 384
WIRE 14848 432 14528 432
WIRE 15168 432 15168 384
WIRE 15168 432 14848 432
WIRE 15488 432 15488 384
WIRE 15488 432 15168 432
WIRE 15808 432 15808 384
WIRE 15808 432 15488 432
WIRE 16128 432 16128 384
WIRE 16128 432 15808 432
WIRE 16448 432 16448 384
WIRE 16448 432 16128 432
WIRE 16768 432 16768 384
WIRE 16768 432 16448 432
WIRE 17088 432 17088 384
WIRE 17088 432 16768 432
WIRE 17408 432 17408 384
WIRE 17408 432 17088 432
WIRE 17728 432 17728 384
WIRE 17728 432 17408 432
WIRE 18048 432 18048 384
WIRE 18048 432 17728 432
WIRE 18608 432 18608 416
WIRE 18608 432 18048 432
WIRE 12224 560 12224 32
WIRE 13024 560 13024 400
WIRE 13024 560 12224 560
WIRE 13344 560 13344 416
WIRE 13344 560 13024 560
WIRE 13776 560 13776 416
WIRE 13776 560 13344 560
WIRE 14000 560 14000 432
WIRE 14000 560 13776 560
WIRE 18608 560 18608 432
WIRE 19072 560 19072 416
WIRE 19072 560 18608 560
WIRE 2416 576 2336 576
WIRE 2336 592 2336 576
WIRE 2464 608 2464 384
WIRE 2416 624 2416 576
WIRE 2416 672 2032 672
WIRE 2032 704 2032 672
WIRE 2320 752 2240 752
WIRE 2464 752 2464 688
WIRE 2592 752 2464 752
WIRE 2784 752 2672 752
WIRE 2944 752 2784 752
WIRE 3072 752 3024 752
WIRE 3216 752 3152 752
WIRE 3520 752 3216 752
WIRE 3792 752 3600 752
WIRE 3936 752 3872 752
WIRE 4032 752 3936 752
WIRE 4112 752 4032 752
WIRE 4256 752 4192 752
WIRE 4352 752 4256 752
WIRE 4432 752 4352 752
WIRE 4576 752 4512 752
WIRE 4672 752 4576 752
WIRE 4752 752 4672 752
WIRE 4896 752 4832 752
WIRE 4992 752 4896 752
WIRE 5072 752 4992 752
WIRE 5216 752 5152 752
WIRE 5312 752 5216 752
WIRE 5392 752 5312 752
WIRE 5536 752 5472 752
WIRE 5632 752 5536 752
WIRE 5712 752 5632 752
WIRE 5856 752 5792 752
WIRE 5952 752 5856 752
WIRE 6032 752 5952 752
WIRE 6176 752 6112 752
WIRE 6272 752 6176 752
WIRE 6352 752 6272 752
WIRE 6496 752 6432 752
WIRE 6592 752 6496 752
WIRE 6672 752 6592 752
WIRE 6816 752 6752 752
WIRE 6912 752 6816 752
WIRE 6992 752 6912 752
WIRE 7136 752 7072 752
WIRE 7232 752 7136 752
WIRE 7312 752 7232 752
WIRE 7456 752 7392 752
WIRE 7552 752 7456 752
WIRE 7632 752 7552 752
WIRE 7776 752 7712 752
WIRE 7872 752 7776 752
WIRE 8144 752 7872 752
WIRE 8320 752 8144 752
WIRE 8496 752 8320 752
WIRE 8544 752 8496 752
WIRE 8672 752 8624 752
WIRE 8960 752 8752 752
WIRE 2240 784 2240 752
WIRE 2416 784 2352 784
WIRE 8144 784 8144 752
WIRE 8320 784 8320 752
WIRE 2464 800 2464 752
WIRE 3936 800 3936 752
WIRE 4256 800 4256 752
WIRE 4576 800 4576 752
WIRE 4896 800 4896 752
WIRE 5216 800 5216 752
WIRE 5536 800 5536 752
WIRE 5856 800 5856 752
WIRE 6176 800 6176 752
WIRE 6496 800 6496 752
WIRE 6816 800 6816 752
WIRE 7136 800 7136 752
WIRE 7456 800 7456 752
WIRE 7776 800 7776 752
WIRE 2352 816 2352 784
WIRE 2416 816 2416 784
WIRE 2032 832 2032 784
WIRE 2784 832 2784 752
WIRE 3216 832 3216 752
WIRE 8496 832 8496 752
WIRE 8960 832 8960 752
WIRE 2320 864 2320 752
WIRE 2416 864 2320 864
WIRE 12112 896 12112 -96
WIRE 13024 896 12112 896
WIRE 2240 912 2240 864
WIRE 3936 912 3936 864
WIRE 3936 912 3408 912
WIRE 4256 912 4256 864
WIRE 4256 912 3936 912
WIRE 4576 912 4576 864
WIRE 4576 912 4256 912
WIRE 4896 912 4896 864
WIRE 4896 912 4576 912
WIRE 5216 912 5216 864
WIRE 5216 912 4896 912
WIRE 5536 912 5536 864
WIRE 5536 912 5216 912
WIRE 5856 912 5856 864
WIRE 5856 912 5536 912
WIRE 6176 912 6176 864
WIRE 6176 912 5856 912
WIRE 6496 912 6496 864
WIRE 6496 912 6176 912
WIRE 6816 912 6816 864
WIRE 6816 912 6496 912
WIRE 7136 912 7136 864
WIRE 7136 912 6816 912
WIRE 7456 912 7456 864
WIRE 7456 912 7136 912
WIRE 7776 912 7776 864
WIRE 7776 912 7456 912
WIRE 8144 912 8144 864
WIRE 8144 912 7776 912
WIRE 8320 912 8320 864
WIRE 8320 912 8144 912
WIRE 8496 912 8496 896
WIRE 8496 912 8320 912
WIRE 4032 944 4032 752
WIRE 4352 944 4352 752
WIRE 4672 944 4672 752
WIRE 4992 944 4992 752
WIRE 5312 944 5312 752
WIRE 5632 944 5632 752
WIRE 5952 944 5952 752
WIRE 6272 944 6272 752
WIRE 6592 944 6592 752
WIRE 6912 944 6912 752
WIRE 7232 944 7232 752
WIRE 7552 944 7552 752
WIRE 7872 944 7872 752
WIRE 1360 1040 1360 224
WIRE 2464 1040 2464 880
WIRE 2464 1040 1360 1040
WIRE 2784 1040 2784 896
WIRE 2784 1040 2464 1040
WIRE 3216 1040 3216 896
WIRE 3216 1040 2784 1040
WIRE 3408 1040 3408 912
WIRE 3408 1040 3216 1040
WIRE 8496 1040 8496 912
WIRE 8960 1040 8960 896
WIRE 8960 1040 8496 1040
WIRE 12976 1040 12896 1040
WIRE 12896 1056 12896 1040
WIRE 13024 1072 13024 896
WIRE 12976 1088 12976 1040
WIRE 3648 1136 3536 1136
WIRE 3792 1136 3648 1136
WIRE 3936 1136 3872 1136
WIRE 4032 1136 4032 1008
WIRE 4032 1136 3936 1136
WIRE 4112 1136 4032 1136
WIRE 4256 1136 4192 1136
WIRE 4352 1136 4352 1008
WIRE 4352 1136 4256 1136
WIRE 4432 1136 4352 1136
WIRE 4576 1136 4512 1136
WIRE 4672 1136 4672 1008
WIRE 4672 1136 4576 1136
WIRE 4752 1136 4672 1136
WIRE 4896 1136 4832 1136
WIRE 4992 1136 4992 1008
WIRE 4992 1136 4896 1136
WIRE 5072 1136 4992 1136
WIRE 5216 1136 5152 1136
WIRE 5312 1136 5312 1008
WIRE 5312 1136 5216 1136
WIRE 5392 1136 5312 1136
WIRE 5536 1136 5472 1136
WIRE 5632 1136 5632 1008
WIRE 5632 1136 5536 1136
WIRE 5712 1136 5632 1136
WIRE 5856 1136 5792 1136
WIRE 5952 1136 5952 1008
WIRE 5952 1136 5856 1136
WIRE 6032 1136 5952 1136
WIRE 6176 1136 6112 1136
WIRE 6272 1136 6272 1008
WIRE 6272 1136 6176 1136
WIRE 6352 1136 6272 1136
WIRE 6496 1136 6432 1136
WIRE 6592 1136 6592 1008
WIRE 6592 1136 6496 1136
WIRE 6672 1136 6592 1136
WIRE 6816 1136 6752 1136
WIRE 6912 1136 6912 1008
WIRE 6912 1136 6816 1136
WIRE 6992 1136 6912 1136
WIRE 7136 1136 7072 1136
WIRE 7232 1136 7232 1008
WIRE 7232 1136 7136 1136
WIRE 7312 1136 7232 1136
WIRE 7456 1136 7392 1136
WIRE 7552 1136 7552 1008
WIRE 7552 1136 7456 1136
WIRE 7632 1136 7552 1136
WIRE 7776 1136 7712 1136
WIRE 7872 1136 7872 1008
WIRE 7872 1136 7776 1136
WIRE 8144 1136 7872 1136
WIRE 12976 1136 12592 1136
WIRE 12592 1168 12592 1136
WIRE 8144 1184 8144 1136
WIRE 3536 1200 3536 1136
WIRE 3648 1200 3648 1136
WIRE 3936 1216 3936 1136
WIRE 4256 1216 4256 1136
WIRE 4576 1216 4576 1136
WIRE 4896 1216 4896 1136
WIRE 5216 1216 5216 1136
WIRE 5536 1216 5536 1136
WIRE 5856 1216 5856 1136
WIRE 6176 1216 6176 1136
WIRE 6496 1216 6496 1136
WIRE 6816 1216 6816 1136
WIRE 7136 1216 7136 1136
WIRE 7456 1216 7456 1136
WIRE 7776 1216 7776 1136
WIRE 12880 1216 12800 1216
WIRE 13024 1216 13024 1152
WIRE 13152 1216 13024 1216
WIRE 13344 1216 13232 1216
WIRE 13504 1216 13344 1216
WIRE 13632 1216 13584 1216
WIRE 13776 1216 13712 1216
WIRE 14032 1216 13776 1216
WIRE 14384 1216 14112 1216
WIRE 14528 1216 14464 1216
WIRE 14704 1216 14528 1216
WIRE 14848 1216 14784 1216
WIRE 15024 1216 14848 1216
WIRE 15168 1216 15104 1216
WIRE 15344 1216 15168 1216
WIRE 15488 1216 15424 1216
WIRE 15664 1216 15488 1216
WIRE 15808 1216 15744 1216
WIRE 15984 1216 15808 1216
WIRE 16128 1216 16064 1216
WIRE 16304 1216 16128 1216
WIRE 16448 1216 16384 1216
WIRE 16624 1216 16448 1216
WIRE 16768 1216 16704 1216
WIRE 16944 1216 16768 1216
WIRE 17088 1216 17024 1216
WIRE 17264 1216 17088 1216
WIRE 17408 1216 17344 1216
WIRE 17584 1216 17408 1216
WIRE 17728 1216 17664 1216
WIRE 17904 1216 17728 1216
WIRE 18048 1216 17984 1216
WIRE 18608 1216 18048 1216
WIRE 18656 1216 18608 1216
WIRE 18784 1216 18736 1216
WIRE 19072 1216 18864 1216
WIRE 1248 1232 1248 384
WIRE 2656 1232 1248 1232
WIRE 12800 1248 12800 1216
WIRE 12976 1248 12912 1248
WIRE 13024 1264 13024 1216
WIRE 14528 1264 14528 1216
WIRE 14848 1264 14848 1216
WIRE 15168 1264 15168 1216
WIRE 15488 1264 15488 1216
WIRE 15808 1264 15808 1216
WIRE 16128 1264 16128 1216
WIRE 16448 1264 16448 1216
WIRE 16768 1264 16768 1216
WIRE 17088 1264 17088 1216
WIRE 17408 1264 17408 1216
WIRE 17728 1264 17728 1216
WIRE 18048 1264 18048 1216
WIRE 12912 1280 12912 1248
WIRE 12976 1280 12976 1248
WIRE 12592 1296 12592 1248
WIRE 13344 1296 13344 1216
WIRE 13776 1296 13776 1216
WIRE 18608 1296 18608 1216
WIRE 19072 1296 19072 1216
WIRE 3536 1328 3536 1280
WIRE 3632 1328 3536 1328
WIRE 3648 1328 3648 1280
WIRE 3648 1328 3632 1328
WIRE 3936 1328 3936 1280
WIRE 4256 1328 4256 1280
WIRE 4576 1328 4576 1280
WIRE 4896 1328 4896 1280
WIRE 5216 1328 5216 1280
WIRE 5536 1328 5536 1280
WIRE 5856 1328 5856 1280
WIRE 6176 1328 6176 1280
WIRE 6496 1328 6496 1280
WIRE 6816 1328 6816 1280
WIRE 7136 1328 7136 1280
WIRE 7456 1328 7456 1280
WIRE 7776 1328 7776 1280
WIRE 12880 1328 12880 1216
WIRE 12976 1328 12880 1328